/*--------------------------------*- C++ -*----------------------------------*\ 
| =========                 |                                                 |
| \\      /  F ield         | OpenFOAM: The Open Source CFD Toolbox           |
|  \\    /   O peration     | Version:  4.x                                   |
|   \\  /    A nd           | Web:      www.OpenFOAM.org                      |
|    \\/     M anipulation  |                                                 |
\*---------------------------------------------------------------------------*/
FoamFile
{
    version     2.0;
    format      ascii;
    class       dictionary;
    location    "chemkin";
    object      transportProperties;
}
// * * * * * * * * * * * * * * * * * * * * * * * * * * * * * * * * * * * * * //

CH4
{
    transport
    {
        As 1.033e-06;
        Ts 174.5;
    }
}

H2
{
    transport
    {
        As 7.005e-07;
        Ts 116;
    }
}

CO
{
    transport
    {
        As 1.485e-06;
        Ts 142.7;
    }
}

CO2
{
    transport
    {
        As 1.646e-06;
        Ts 267.6;
    }
}

H2O
{
    transport
    {
        As 2.098e-06;
        Ts 552.9;
    }
}

AR
{
    transport
    {
        As 2.068e-06;
        Ts 170.6;
    }
}

// ************************************************************************* //
