/*--------------------------------*- C++ -*----------------------------------*\
  =========                 |
  \\      /  F ield         | OpenFOAM: The Open Source CFD Toolbox
   \\    /   O peration     | Website:  https://openfoam.org
    \\  /    A nd           | Version:  dev
     \\/     M anipulation  |
\*---------------------------------------------------------------------------*/
FoamFile
{
    version     2.0;
    format      ascii;
    class       dictionary;
    location    "system";
    object      momentGenerationDict;
}
// * * * * * * * * * * * * * * * * * * * * * * * * * * * * * * * * * * * * * //

phases
(
    particles
);

boundaries
{
    inlet
    {
        type    fixedValue;
        value   zeroGradient;
    }
    defaultFaces
    {
        type    empty;
    }
    walls
    {
        type    zeroGradient;
    }
    outlet
    {
        type    zeroGradient;
    }
}

particles
{
    type                alphaAndDiameter;
    weightDimension     [0 -3 0 0 0 0 0];
    abscissaDimension   [1 0 0 0 0 0 0];

    "internal|default"
    {
        node0
        {
            rho     rho [1 -3 0 0 0 0 0] 1684;
            dia     dia [0 1 0 0 0 0 0] 125.1e-6;
            alpha   alpha [0 0 0 0 0 0 0] 0.33;
        }
        node1
        {
            rho     rho [1 -3 0 0 0 0 0] 1684;
            dia     dia [0 1 0 0 0 0 0] 124.9e-6;
            alpha   alpha [0 0 0 0 0 0 0] 0.33;
        }
    }

    setRegions
    {}
}


// ************************************************************************* //
